%%%%%%%%%%%%%%%%%%%%%%%%%%%%%%%%%%%%%%%%%%%%%%%%%%%%%%%%%%%%%%%%%%%%%%%%%%%%%%%%
%                                                                              %
% SU2 configuration file                                                       %
% RAMJET inlet with a backpressure of 2.1 bar                                  %
% Author:                                                                      %
% Institution:                                                                 %
% Date: 2021.09.16                                                             %
% File Version 7.1.0 "Blackbird"                                               %
%                                                                              %
%%%%%%%%%%%%%%%%%%%%%%%%%%%%%%%%%%%%%%%%%%%%%%%%%%%%%%%%%%%%%%%%%%%%%%%%%%%%%%%%
USE_ACCURATE_FLUX_JACOBIANS= YES
CENTRAL_JACOBIAN_FIX_FACTOR= 4.0
% ------------- DIRECT, ADJOINT, AND LINEARIZED PROBLEM DEFINITION ------------%
%
% Physical governing equations (EULER, NAVIER_STOKES,
%             5                 WAVE_EQUATION, HEAT_EQUATION, FEM_ELASTICITY,
%                               POISSON_EQUATION)
SOLVER= EULER
AXISYMMETRIC = YES
%
% Mathematical problem (DIRECT, CONTINUOUS_ADJOINT)
MATH_PROBLEM= DIRECT
%
% Restart solution (NO, YES)
RESTART_SOL= YES

% ----------- COMPRESSIBLE AND INCOMPRESSIBLE FREE-STREAM DEFINITION ----------%
%
% Mach number (non-dimensional, based on the free-stream values)
MACH_NUMBER= 1e-9
%
% Angle of attack (degrees)
AOA= 0.0
%
% Side-slip angle (degrees)
SIDESLIP_ANGLE= 0.0
%
% Init option to choose between Reynolds (default) or thermodynamics quantities
% for initializing the solution (REYNOLDS, TD_CONDITIONS)
INIT_OPTION= TD_CONDITIONS
%
FREESTREAM_PRESSURE= 1.6e5
%
% Free-stream temperature (288.15 K by default)
FREESTREAM_TEMPERATURE= 450
%
REF_DIMENSIONALIZATION=DIMENSIONAL
% ---- NONEQUILIBRIUM GAS, IDEAL GAS, POLYTROPIC, VAN DER WAALS AND PENG ROBINSON CONSTANTS -------%
%
% Fluid model (STANDARD_AIR, IDEAL_GAS, VW_GAS, PR_GAS,
%              CONSTANT_DENSITY, INC_IDEAL_GAS, INC_IDEAL_GAS_POLY, MUTATIONPP, SU2_NONEQ)

FLUID_MODEL= VW_GAS
CRITICAL_TEMPERATURE= 518.750000000
CRITICAL_PRESSURE= 1939000.000000000
GAS_CONSTANT= 51.204575609
GAMMA_VALUE= 1.025524764
ACENTRIC_FACTOR= 0.418000000

% -------------------- BOUNDARY CONDITION DEFINITION --------------------------%
%
% Euler wall boundary marker(s) (NONE = no marker)
MARKER_EULER= ( 2,3 )
MARKER_SYM= ( 6 )
MARKER_RIEMANN= ( 1, TOTAL_CONDITIONS_PT, 8e5, 500, 1.0, 0.0, 0.0, 4, TOTAL_CONDITIONS_PT, 1.6e5, 450, 1.0, 0.0, 0.0, 5, STATIC_PRESSURE, 1.6e5, 0, 0, 0, 0)
% ------------- COMMON PARAMETERS DEFINING THE NUMERICAL METHOD ---------------%
%
% Numerical method for spatial gradients (GREEN_GAUSS, LEAST_SQUARES, 
%                                         WEIGHTED_LEAST_SQUARES)
NUM_METHOD_GRAD= GREEN_GAUSS
NUM_METHOD_GRAD_RECON = LEAST_SQUARES
% Courant-Friedrichs-Lewy condition of the finest grid
CFL_NUMBER=  1
CFL_ADAPT= YES
CFL_ADAPT_PARAM= ( 0.5, 1.25, 0.1, 10 )
MAX_DELTA_TIME= 1E6
% Linear solver for the implicit formulation (BCGSTAB, FGMRES)
LINEAR_SOLVER= FGMRES
% Preconditioner of the Krylov linear solver (ILU, LU_SGS, LINELET, JACOBI)
LINEAR_SOLVER_PREC= ILU
%
% Linael solver ILU preconditioner fill-in level (0 by default)
LINEAR_SOLVER_ILU_FILL_IN= 0
%
% Minimum error of the linear solver for implicit formulations
LINEAR_SOLVER_ERROR= 1E-6
%
% Max number of iterations of the linear solver for the implicit formulation
LINEAR_SOLVER_ITER= 20
% -----------------------------------------------------------------------%
%
% Convective numerical method (JST, LAX-FRIEDRICH, CUSP, ROE, AUSM, HLLC,
%                              TURKEL_PREC, MSW)
CONV_NUM_METHOD_FLOW= ROE
ENTROPY_FIX_COEFF= 1.0
%
% Spatial numerical order integration (1ST_ORDER, 2ND_ORDER, 2ND_ORDER_LIMITER)
%
MUSCL_FLOW= YES
%
% Slope limiter (VENKATAKRISHNAN, MINMOD)
SLOPE_LIMITER_FLOW= VENKATAKRISHNAN
%
% Coefficient for the Venkat's limiter (upwind scheme). A larger values decrease
%             the extent of limiting, values approaching zero cause
%             lower-order approximation to the solution (0.05 by default)
VENKAT_LIMITER_COEFF= 0.0001
%
% Time discretization (RUNGE-KUTTA_EXPLICIT, EULER_IMPLICIT, EULER_EXPLICIT)
TIME_DISCRE_FLOW= EULER_IMPLICIT
% --------------------------- CONVERGENCE PARAMETERS --------------------------%
%
% Number of total iterations
ITER= 1000
CONV_FIELD= RESIDUAL
CONV_RESIDUAL_MINVAL= -20
CONV_STARTITER= 10


% ------------------------- INPUT/OUTPUT INFORMATION --------------------------%

%
% Mesh input file
MESH_FILENAME= admesh.INL.su2
%
% Mesh input file format (SU2, CGNS)
MESH_FORMAT= SU2
%
% Mesh output file
MESH_OUT_FILENAME= mesh_out.su2
%
% Restart flow input file
SOLUTION_FILENAME= solution_interpolated.dat
%
% Output file format (TECPLOT, TECPLOT_BINARY, PARAVIEW,
%                     FIELDVIEW, FIELDVIEW_BINARY)
OUTPUT_FILES= (RESTART, RESTART_ASCII, PARAVIEW, TECPLOT_ASCII, SURFACE_PARAVIEW)
%TECPLOT_ASCII, PARAVIEW, PARAVIEW_ASCII)
%
% Output tabular file format (TECPLOT, CSV)
TABULAR_FORMAT= CSV
%
% Output file convergence history (w/o extension)
CONV_FILENAME= history_2nd
%
% Output file restart flow
RESTART_FILENAME= solution.dat
%
% Output file flow (w/o extension) variables
VOLUME_FILENAME= flow
%
% Output file surface flow coefficient (w/o extension)
SURFACE_FILENAME= surface_flow
%
% Writing solution file frequency
OUTPUT_WRT_FREQ= 100
SCREEN_WRT_FREQ_INNER = 1
% Writing convergence history frequency
SCREEN_OUTPUT= (INNER_ITER, RMS_DENSITY,NONPHYSICAL_POINTS)
